[General]
network = test2.Arqnet
sim-time-limit = 100s
simtime-resolution = ps
